LTspice 24.1.4 for Windows
Circuit: E:\2025 Workshop Opto\stability TIA.net
Start Time: Mon Mar 24 14:41:17 2025
solver = Normal
Maximum thread count: 4
tnom = 27
temp = 27
method = trap
Direct Newton iteration failed to find .op point.  (Use ".option noopiter" to skip.)
Starting Gmin stepping
Gmin = 10
Gmin = 1.07374
Gmin = 0.115292
Gmin = 0.0123794
Gmin = 0.00132923
Gmin = 0.000142725
vernier = 0.5
vernier = 0.25
Gmin = 5.17847e-05
vernier = 0.125
vernier = 0.0625
vernier = 0.03125
Gmin = 5.17187e-05
vernier = 0.0416667
vernier = 0.0555555
Gmin = 4.62694e-05
vernier = 0.074074
vernier = 0.0987653
Gmin = 3.88075e-05
vernier = 0.131687
Gmin = 2.92155e-05
vernier = 0.175583
vernier = 0.23411
Gmin = 1.84288e-05
vernier = 0.312147
vernier = 0.416196
Gmin = 8.96604e-06
vernier = 0.554928
Gmin = 2.85464e-06
vernier = 0.739903
vernier = 0.986537
Gmin = 4.67365e-07
vernier = 1
Gmin = 5.05905e-08
Gmin = 5.43211e-09
Gmin = 5.83268e-10
Gmin = 6.2628e-11
Gmin = 6.72463e-12
Gmin = 7.22051e-13
Gmin = 0
Gmin stepping succeeded in finding the operating point.

Total elapsed time: 19.897 seconds.

Files loaded:
E:\2025 Workshop Opto\stability TIA.net

